
  -OEChem-916523D

  8  7  0     0  0  0  0  0  0999 V2000
    0.8151   -0.1499    0.8861 C   0  0  0  0  0  0  0  0  0  0  0  0
   -1.0973    0.2661    1.3340 C   0  0  0  0  0  0  0  0  0  0  0  0
   -0.0704   -0.0704   -0.0703 H   0  0  0  0  0  0  0  0  0  0  0  0
   -0.0703   -0.0704   -0.0704 H   0  0  0  0  0  0  0  0  0  0  0  0
   -0.0704   -0.0703   -0.0703 H   0  0  0  0  0  0  0  0  0  0  0  0
   -0.0703   -0.0704   -0.0703 H   0  0  0  0  0  0  0  0  0  0  0  0
   -0.0704   -0.0703   -0.0703 H   0  0  0  0  0  0  0  0  0  0  0  0
   -0.0704   -0.0703   -0.0703 H   0  0  0  0  0  0  0  0  0  0  0  0
  1  2  1  0  0  0  0
  1  6  1  0  0  0  0
  1  7  1  0  0  0  0
  1  8  1  0  0  0  0
  2  3  1  0  0  0  0
  2  4  1  0  0  0  0
  2  5  1  0  0  0  0
M  END
> <NNP_Energy_kcal_mol>
1063.6

> <NNP_Energy_status>
Status.GRADIENT_CONVERGED, Status.GEOMETRY_CONVERGED, Status.ENERGY_CONVERGED, Status.ALL_CONVERGED

> <NNP_STEPS>
19

> <NNP_Energy_stdev_kcal_mol>
1063.6

$$$$
